functions/OneTimeScripts/validationAgainstOpenDSS_MATLAB/ieee123_1ph_created/results/powers22.csv
Element, Terminal, P(kW), Q(kvar),  P_Normal, Q_Normal, P_Emergency, Q_Emergency
"Line.L115"             ,   1,       575.3,       219.5,         0.0,         0.0,         0.0,         0.0
"Line.L115"             ,   2,      -573.8,      -216.4
"Line.L1"               ,   1,         4.7,         2.4,         0.0,         0.0,         0.0,         0.0
"Line.L1"               ,   2,        -4.7,        -2.4
"Line.L2"               ,   1,        23.7,        11.8,         0.0,         0.0,         0.0,         0.0
"Line.L2"               ,   2,       -23.7,       -11.8
"Line.L3"               ,   1,       536.0,       197.5,         0.0,         0.0,         0.0,         0.0
"Line.L3"               ,   2,      -535.0,      -195.5
"Line.L4"               ,   1,         9.5,         4.7,         0.0,         0.0,         0.0,         0.0
"Line.L4"               ,   2,        -9.5,        -4.7
"Line.L5"               ,   1,        14.2,         7.1,         0.0,         0.0,         0.0,         0.0
"Line.L5"               ,   2,       -14.2,        -7.1
"Line.L6"               ,   1,         9.5,         4.7,         0.0,         0.0,         0.0,         0.0
"Line.L6"               ,   2,        -9.5,        -4.7
"Line.L7"               ,   1,       530.2,       193.1,         0.0,         0.0,         0.0,         0.0
"Line.L7"               ,   2,      -529.6,      -191.8
"Line.L8"               ,   1,         4.7,         2.4,         0.0,         0.0,         0.0,         0.0
"Line.L8"               ,   2,        -4.7,        -2.4
"Line.L9"               ,   1,        10.3,        11.8,         0.0,         0.0,         0.0,         0.0
"Line.L9"               ,   2,       -10.3,       -11.8
"Line.L10"              ,   1,       514.5,       177.6,         0.0,         0.0,         0.0,         0.0
"Line.L10"              ,   2,      -513.6,      -175.7
"Line.L11"              ,   1,        14.2,         7.1,         0.0,         0.0,         0.0,         0.0
"Line.L11"              ,   2,       -14.2,        -7.1
"Line.L12"              ,   1,        23.7,        11.8,         0.0,         0.0,         0.0,         0.0
"Line.L12"              ,   2,       -23.7,       -11.8
"Line.L13"              ,   1,       181.3,       155.3,         0.0,         0.0,         0.0,         0.0
"Line.L13"              ,   2,      -180.8,      -154.3
"Line.L14"              ,   1,         9.5,         4.7,         0.0,         0.0,         0.0,         0.0
"Line.L14"              ,   2,        -9.5,        -4.7
"Line.L15"              ,   1,         4.7,         2.4,         0.0,         0.0,         0.0,         0.0
"Line.L15"              ,   2,        -4.7,        -2.4
"Line.L16"              ,   1,         9.5,         4.7,         0.0,         0.0,         0.0,         0.0
"Line.L16"              ,   2,        -9.5,        -4.7
"Line.L17"              ,   1,         4.7,         2.4,         0.0,         0.0,         0.0,         0.0
"Line.L17"              ,   2,        -4.7,        -2.4
"Line.L18"              ,   1,        18.9,         9.5,         0.0,         0.0,         0.0,         0.0
"Line.L18"              ,   2,       -18.9,        -9.5
"Line.L19"              ,   1,        53.0,        33.2,         0.0,         0.0,         0.0,         0.0
"Line.L19"              ,   2,       -53.0,       -33.1
"Line.L20"              ,   1,         9.5,         4.7,         0.0,         0.0,         0.0,         0.0
"Line.L20"              ,   2,        -9.5,        -4.7
"Line.L21"              ,   1,         9.5,         4.7,         0.0,         0.0,         0.0,         0.0
"Line.L21"              ,   2,        -9.5,        -4.7
"Line.L22"              ,   1,        43.5,        28.4,         0.0,         0.0,         0.0,         0.0
"Line.L22"              ,   2,       -43.5,       -28.4
"Line.L23"              ,   1,         9.5,         4.7,         0.0,         0.0,         0.0,         0.0
"Line.L23"              ,   2,        -9.5,        -4.7
"Line.L24"              ,   1,        34.0,        23.7,         0.0,         0.0,         0.0,         0.0
"Line.L24"              ,   2,       -34.0,       -23.7
"Line.L25"              ,   1,        18.9,         9.5,         0.0,         0.0,         0.0,         0.0
"Line.L25"              ,   2,       -18.9,        -9.5
"Line.L26"              ,   1,        15.1,        14.2,         0.0,         0.0,         0.0,         0.0
"Line.L26"              ,   2,       -15.1,       -14.2
"Line.L27"              ,   1,         9.5,         4.7,         0.0,         0.0,         0.0,         0.0
"Line.L27"              ,   2,        -9.5,        -4.7
"Line.L28"              ,   1,         9.5,         4.7,         0.0,         0.0,         0.0,         0.0
"Line.L28"              ,   2,        -9.5,        -4.7
"Line.L29"              ,   1,         9.5,         4.7,         0.0,         0.0,         0.0,         0.0
"Line.L29"              ,   2,        -9.5,        -4.7
"Line.L30"              ,   1,        18.9,         9.5,         0.0,         0.0,         0.0,         0.0
"Line.L30"              ,   2,       -18.9,        -9.5
"Line.L31"              ,   1,         9.5,         4.7,         0.0,         0.0,         0.0,         0.0
"Line.L31"              ,   2,        -9.5,        -4.7
"Line.L32"              ,   1,         0.0,        -0.0,         0.0,         0.0,         0.0,         0.0
"Line.L32"              ,   2,        -0.0,         0.0
"Line.L33"              ,   1,         4.7,         2.4,         0.0,         0.0,         0.0,         0.0
"Line.L33"              ,   2,        -4.7,        -2.4
"Line.L34"              ,   1,        14.2,         7.1,         0.0,         0.0,         0.0,         0.0
"Line.L34"              ,   2,       -14.2,        -7.1
"Line.L35"              ,   1,        18.9,         9.5,         0.0,         0.0,         0.0,         0.0
"Line.L35"              ,   2,       -18.9,        -9.5
"Line.L36"              ,   1,        80.4,        97.3,         0.0,         0.0,         0.0,         0.0
"Line.L36"              ,   2,       -80.4,       -97.2
"Line.L37"              ,   1,         9.5,         4.7,         0.0,         0.0,         0.0,         0.0
"Line.L37"              ,   2,        -9.5,        -4.7
"Line.L38"              ,   1,         9.5,         4.7,         0.0,         0.0,         0.0,         0.0
"Line.L38"              ,   2,        -9.5,        -4.7
"Line.L39"              ,   1,         4.7,         2.4,         0.0,         0.0,         0.0,         0.0
"Line.L39"              ,   2,        -4.7,        -2.4
"Line.L40"              ,   1,         4.7,         2.4,         0.0,         0.0,         0.0,         0.0
"Line.L40"              ,   2,        -4.7,        -2.4
"Line.L41"              ,   1,        75.7,        94.9,         0.0,         0.0,         0.0,         0.0
"Line.L41"              ,   2,       -75.6,       -94.8
"Line.L42"              ,   1,         9.5,         4.7,         0.0,         0.0,         0.0,         0.0
"Line.L42"              ,   2,        -9.5,        -4.7
"Line.L43"              ,   1,        61.4,        87.7,         0.0,         0.0,         0.0,         0.0
"Line.L43"              ,   2,       -61.4,       -87.6
"Line.L44"              ,   1,         9.5,         4.7,         0.0,         0.0,         0.0,         0.0
"Line.L44"              ,   2,        -9.5,        -4.7
"Line.L45"              ,   1,        51.9,        82.9,         0.0,         0.0,         0.0,         0.0
"Line.L45"              ,   2,       -51.9,       -82.8
"Line.L46"              ,   1,         4.7,         2.4,         0.0,         0.0,         0.0,         0.0
"Line.L46"              ,   2,        -4.7,        -2.4
"Line.L47"              ,   1,       -20.3,        35.5,         0.0,         0.0,         0.0,         0.0
"Line.L47"              ,   2,        20.3,       -35.5
"Line.L48"              ,   1,        47.3,        29.6,         0.0,         0.0,         0.0,         0.0
"Line.L48"              ,   2,       -47.3,       -29.6
"Line.L49"              ,   1,        14.2,         7.1,         0.0,         0.0,         0.0,         0.0
"Line.L49"              ,   2,       -14.2,        -7.1
"Line.L50"              ,   1,         4.7,         2.4,         0.0,         0.0,         0.0,         0.0
"Line.L50"              ,   2,        -4.7,        -2.4
"Line.L51"              ,   1,         0.0,        -0.0,         0.0,         0.0,         0.0,         0.0
"Line.L51"              ,   2,        -0.0,        -0.0
"Line.L52"              ,   1,       298.8,         3.1,         0.0,         0.0,         0.0,         0.0
"Line.L52"              ,   2,      -298.6,        -2.7
"Line.L53"              ,   1,       289.1,        -2.0,         0.0,         0.0,         0.0,         0.0
"Line.L53"              ,   2,      -289.0,         2.2
"Line.L54"              ,   1,         9.5,         4.7,         0.0,         0.0,         0.0,         0.0
"Line.L54"              ,   2,        -9.5,        -4.7
"Line.L55"              ,   1,       279.6,        -7.0,         0.0,         0.0,         0.0,         0.0
"Line.L55"              ,   2,      -279.3,         7.5
"Line.L56"              ,   1,         4.7,         2.4,         0.0,         0.0,         0.0,         0.0
"Line.L56"              ,   2,        -4.7,        -2.4
"Line.L57"              ,   1,         2.8,         4.7,         0.0,         0.0,         0.0,         0.0
"Line.L57"              ,   2,        -2.8,        -4.7
"Line.L58"              ,   1,       276.5,       -12.3,         0.0,         0.0,         0.0,         0.0
"Line.L58"              ,   2,      -275.9,        13.5
"Line.L59"              ,   1,         4.7,         2.4,         0.0,         0.0,         0.0,         0.0
"Line.L59"              ,   2,        -4.7,        -2.4
"Line.L60"              ,   1,         0.0,        -0.0,         0.0,         0.0,         0.0,         0.0
"Line.L60"              ,   2,        -0.0,         0.0
"Line.L61"              ,   1,        41.0,        49.6,         0.0,         0.0,         0.0,         0.0
"Line.L61"              ,   2,       -41.0,       -49.6
"Line.L62"              ,   1,        31.5,        44.9,         0.0,         0.0,         0.0,         0.0
"Line.L62"              ,   2,       -31.5,       -44.9
"Line.L63"              ,   1,        22.0,        40.2,         0.0,         0.0,         0.0,         0.0
"Line.L63"              ,   2,       -22.0,       -40.2
"Line.L64"              ,   1,         4.2,        31.9,         0.0,         0.0,         0.0,         0.0
"Line.L64"              ,   2,        -4.2,       -31.9
"Line.L65"              ,   1,        17.8,         8.3,         0.0,         0.0,         0.0,         0.0
"Line.L65"              ,   2,       -17.8,        -8.3
"Line.L66"              ,   1,        28.4,        14.2,         0.0,         0.0,         0.0,         0.0
"Line.L66"              ,   2,       -28.4,       -14.2
"Line.L67"              ,   1,       110.6,      -132.4,         0.0,         0.0,         0.0,         0.0
"Line.L67"              ,   2,      -110.5,       132.6
"Line.L68"              ,   1,        90.9,        52.2,         0.0,         0.0,         0.0,         0.0
"Line.L68"              ,   2,       -90.9,       -52.2
"Line.L69"              ,   1,        23.7,        11.8,         0.0,         0.0,         0.0,         0.0
"Line.L69"              ,   2,       -23.7,       -11.8
"Line.L70"              ,   1,        14.2,         7.1,         0.0,         0.0,         0.0,         0.0
"Line.L70"              ,   2,       -14.2,        -7.1
"Line.L71"              ,   1,         9.5,         4.7,         0.0,         0.0,         0.0,         0.0
"Line.L71"              ,   2,        -9.5,        -4.7
"Line.L72"              ,   1,        28.4,        14.2,         0.0,         0.0,         0.0,         0.0
"Line.L72"              ,   2,       -28.4,       -14.2
"Line.L73"              ,   1,        82.1,      -146.8,         0.0,         0.0,         0.0,         0.0
"Line.L73"              ,   2,       -82.0,       146.9
"Line.L74"              ,   1,        18.9,         9.5,         0.0,         0.0,         0.0,         0.0
"Line.L74"              ,   2,       -18.9,        -9.5
"Line.L75"              ,   1,         9.5,         4.7,         0.0,         0.0,         0.0,         0.0
"Line.L75"              ,   2,        -9.5,        -4.7
"Line.L76"              ,   1,        57.4,      -170.3,         0.0,         0.0,         0.0,         0.0
"Line.L76"              ,   2,       -57.3,       170.6
"Line.L77"              ,   1,        48.3,       -19.2,         0.0,         0.0,         0.0,         0.0
"Line.L77"              ,   2,       -48.2,        19.2
"Line.L78"              ,   1,        47.8,      -175.4,         0.0,         0.0,         0.0,         0.0
"Line.L78"              ,   2,       -47.8,       175.4
"Line.L79"              ,   1,         9.5,         4.7,         0.0,         0.0,         0.0,         0.0
"Line.L79"              ,   2,        -9.5,        -4.7
"Line.L80"              ,   1,        38.3,      -180.2,         0.0,         0.0,         0.0,         0.0
"Line.L80"              ,   2,       -38.1,       180.5
"Line.L81"              ,   1,        28.7,      -185.2,         0.0,         0.0,         0.0,         0.0
"Line.L81"              ,   2,       -28.6,       185.4
"Line.L82"              ,   1,        14.4,      -192.5,         0.0,         0.0,         0.0,         0.0
"Line.L82"              ,   2,       -14.3,       192.7
"Line.L83"              ,   1,        14.2,         7.1,         0.0,         0.0,         0.0,         0.0
"Line.L83"              ,   2,       -14.2,        -7.1
"Line.L84"              ,   1,         4.8,      -197.4,         0.0,         0.0,         0.0,         0.0
"Line.L84"              ,   2,        -4.7,       197.6
"Line.L85"              ,   1,         9.5,         4.7,         0.0,         0.0,         0.0,         0.0
"Line.L85"              ,   2,        -9.5,        -4.7
"Line.L86"              ,   1,        43.5,       -21.6,         0.0,         0.0,         0.0,         0.0
"Line.L86"              ,   2,       -43.5,        21.6
"Line.L87"              ,   1,         9.5,       -11.9,         0.0,         0.0,         0.0,         0.0
"Line.L87"              ,   2,        -9.5,        11.9
"Line.L88"              ,   1,        37.9,       -14.4,         0.0,         0.0,         0.0,         0.0
"Line.L88"              ,   2,       -37.9,        14.4
"Line.L89"              ,   1,         9.5,       -11.9,         0.0,         0.0,         0.0,         0.0
"Line.L89"              ,   2,        -9.5,        11.9
"Line.L90"              ,   1,        28.4,        -2.5,         0.0,         0.0,         0.0,         0.0
"Line.L90"              ,   2,       -28.4,         2.5
"Line.L91"              ,   1,         9.5,       -11.9,         0.0,         0.0,         0.0,         0.0
"Line.L91"              ,   2,        -9.5,        11.9
"Line.L92"              ,   1,        18.9,         9.5,         0.0,         0.0,         0.0,         0.0
"Line.L92"              ,   2,       -18.9,        -9.5
"Line.L93"              ,   1,         9.5,         4.7,         0.0,         0.0,         0.0,         0.0
"Line.L93"              ,   2,        -9.5,        -4.7
"Line.L94"              ,   1,         9.5,         4.7,         0.0,         0.0,         0.0,         0.0
"Line.L94"              ,   2,        -9.5,        -4.7
"Line.L95"              ,   1,         4.7,         2.4,         0.0,         0.0,         0.0,         0.0
"Line.L95"              ,   2,        -4.7,        -2.4
"Line.L96"              ,   1,        15.1,        14.2,         0.0,         0.0,         0.0,         0.0
"Line.L96"              ,   2,       -15.1,       -14.2
"Line.L97"              ,   1,         5.6,         9.5,         0.0,         0.0,         0.0,         0.0
"Line.L97"              ,   2,        -5.6,        -9.5
"Line.L98"              ,   1,        -3.9,         4.7,         0.0,         0.0,         0.0,         0.0
"Line.L98"              ,   2,         3.9,        -4.7
"Line.L99"              ,   1,         0.0,        -0.0,         0.0,         0.0,         0.0,         0.0
"Line.L99"              ,   2,         0.0,         0.0
"Line.L118"             ,   1,        75.8,        38.0,         0.0,         0.0,         0.0,         0.0
"Line.L118"             ,   2,       -75.8,       -37.9
"Line.L100"             ,   1,        23.7,        11.8,         0.0,         0.0,         0.0,         0.0
"Line.L100"             ,   2,       -23.7,       -11.8
"Line.L101"             ,   1,        52.1,        26.1,         0.0,         0.0,         0.0,         0.0
"Line.L101"             ,   2,       -52.1,       -26.1
"Line.L102"             ,   1,        18.9,         9.5,         0.0,         0.0,         0.0,         0.0
"Line.L102"             ,   2,       -18.9,        -9.5
"Line.L103"             ,   1,         9.5,         4.7,         0.0,         0.0,         0.0,         0.0
"Line.L103"             ,   2,        -9.5,        -4.7
"Line.L104"             ,   1,        18.9,         9.5,         0.0,         0.0,         0.0,         0.0
"Line.L104"             ,   2,       -18.9,        -9.5
"Line.L105"             ,   1,        33.2,        16.6,         0.0,         0.0,         0.0,         0.0
"Line.L105"             ,   2,       -33.2,       -16.6
"Line.L106"             ,   1,         9.5,         4.7,         0.0,         0.0,         0.0,         0.0
"Line.L106"             ,   2,        -9.5,        -4.7
"Line.L107"             ,   1,        33.2,        16.6,         0.0,         0.0,         0.0,         0.0
"Line.L107"             ,   2,       -33.2,       -16.6
"Line.L108"             ,   1,         0.0,        -0.0,         0.0,         0.0,         0.0,         0.0
"Line.L108"             ,   2,        -0.0,         0.0
"Line.L109"             ,   1,        23.7,        11.8,         0.0,         0.0,         0.0,         0.0
"Line.L109"             ,   2,       -23.7,       -11.8
"Line.L110"             ,   1,         4.7,         2.4,         0.0,         0.0,         0.0,         0.0
"Line.L110"             ,   2,        -4.7,        -2.4
"Line.L111"             ,   1,        18.9,         9.5,         0.0,         0.0,         0.0,         0.0
"Line.L111"             ,   2,       -18.9,        -9.5
"Line.L112"             ,   1,        14.2,         7.1,         0.0,         0.0,         0.0,         0.0
"Line.L112"             ,   2,       -14.2,        -7.1
"Line.L113"             ,   1,         4.7,         2.4,         0.0,         0.0,         0.0,         0.0
"Line.L113"             ,   2,        -4.7,        -2.4
"Line.L114"             ,   1,       108.9,       111.7,         0.0,         0.0,         0.0,         0.0
"Line.L114"             ,   2,      -108.8,      -111.5
"Line.L116"             ,   1,       308.6,         8.6,         0.0,         0.0,         0.0,         0.0
"Line.L116"             ,   2,      -308.2,        -7.8
"Line.L117"             ,   1,       230.2,       -65.5,         0.0,         0.0,         0.0,         0.0
"Line.L117"             ,   2,      -229.9,        65.9
"Line.SW1"              ,   1,       575.3,       219.5,         0.0,         0.0,         0.0,         0.0
"Line.SW1"              ,   2,      -575.3,      -219.5
"Line.SW2"              ,   1,       308.6,         8.6,         0.0,         0.0,         0.0,         0.0
"Line.SW2"              ,   2,      -308.6,        -8.6
"Line.SW3"              ,   1,       108.9,       111.7,         0.0,         0.0,         0.0,         0.0
"Line.SW3"              ,   2,      -108.9,      -111.7
"Line.SW4"              ,   1,       230.2,       -65.5,         0.0,         0.0,         0.0,         0.0
"Line.SW4"              ,   2,      -230.2,        65.5
"Line.SW5"              ,   1,        75.8,        38.0,         0.0,         0.0,         0.0,         0.0
"Line.SW5"              ,   2,       -75.8,       -38.0
"Line.XFM1"             ,   1,         0.0,         0.0,         0.0,         0.0,         0.0,         0.0
"Line.XFM1"             ,   2,         0.0,         0.0
"Transformer.REG1A"     ,   1,       575.3,       219.5,         0.0,         0.0,         0.0,         0.0
"Transformer.REG1A"     ,   2,      -575.3,      -219.5
"Transformer.REG2A"     ,   1,        14.2,         7.1,         0.0,         0.0,         0.0,         0.0
"Transformer.REG2A"     ,   2,       -14.2,        -7.1
"Transformer.REG3A"     ,   1,        18.9,         9.5,         0.0,         0.0,         0.0,         0.0
"Transformer.REG3A"     ,   2,       -18.9,        -9.5
"Transformer.REG4A"     ,   1,       230.2,       -65.5,         0.0,         0.0,         0.0,         0.0
"Transformer.REG4A"     ,   2,      -230.2,        65.5
"Load.S1"               ,   1,         9.5,         4.7
"Load.S2"               ,   1,         4.7,         2.4
"Load.S4"               ,   1,         9.5,         4.7
"Load.S5"               ,   1,         4.7,         2.4
"Load.S6"               ,   1,         9.5,         4.7
"Load.S7"               ,   1,         4.7,         2.4
"Load.S9"               ,   1,         9.5,         4.7
"Load.S10"              ,   1,         4.7,         2.4
"Load.S11"              ,   1,         9.5,         4.7
"Load.S12"              ,   1,         4.7,         2.4
"Load.S16"              ,   1,         9.5,         4.7
"Load.S17"              ,   1,         4.7,         2.4
"Load.S19"              ,   1,         9.5,         4.7
"Load.S20"              ,   1,         9.5,         4.7
"Load.S22"              ,   1,         9.5,         4.7
"Load.S24"              ,   1,         9.5,         4.7
"Load.S28"              ,   1,         9.5,         4.7
"Load.S29"              ,   1,         9.5,         4.7
"Load.S30"              ,   1,         9.5,         4.7
"Load.S31"              ,   1,         4.7,         2.4
"Load.S32"              ,   1,         4.7,         2.4
"Load.S33"              ,   1,         9.5,         4.7
"Load.S34"              ,   1,         9.5,         4.7
"Load.S35"              ,   1,         9.5,         4.7
"Load.S37"              ,   1,         9.5,         4.7
"Load.S38"              ,   1,         4.7,         2.4
"Load.S39"              ,   1,         4.7,         2.4
"Load.S41"              ,   1,         4.7,         2.4
"Load.S42"              ,   1,         4.7,         2.4
"Load.S43"              ,   1,         9.5,         4.7
"Load.S45"              ,   1,         4.7,         2.4
"Load.S46"              ,   1,         4.7,         2.4
"Load.S47"              ,   1,        24.9,        17.8
"Load.S48"              ,   1,        49.7,        35.5
"Load.S49"              ,   1,        33.1,        22.5
"Load.S50"              ,   1,         9.5,         4.7
"Load.S51"              ,   1,         4.7,         2.4
"Load.S52"              ,   1,         9.5,         4.7
"Load.S53"              ,   1,         9.5,         4.7
"Load.S55"              ,   1,         4.7,         2.4
"Load.S56"              ,   1,         4.7,         2.4
"Load.S58"              ,   1,         4.7,         2.4
"Load.S59"              ,   1,         4.7,         2.4
"Load.S60"              ,   1,         4.7,         2.4
"Load.S62"              ,   1,         9.5,         4.7
"Load.S63"              ,   1,         9.5,         4.7
"Load.S64"              ,   1,        17.8,         8.3
"Load.S65"              ,   1,        33.1,        23.7
"Load.S66"              ,   1,        17.8,         8.3
"Load.S68"              ,   1,         4.7,         2.4
"Load.S69"              ,   1,         9.5,         4.7
"Load.S70"              ,   1,         4.7,         2.4
"Load.S71"              ,   1,         9.5,         4.7
"Load.S73"              ,   1,         9.5,         4.7
"Load.S74"              ,   1,         9.5,         4.7
"Load.S75"              ,   1,         9.5,         4.7
"Load.S76"              ,   1,        58.0,        42.6
"Load.S77"              ,   1,         9.5,         4.7
"Load.S79"              ,   1,         9.5,         4.7
"Load.S80"              ,   1,         9.5,         4.7
"Load.S82"              ,   1,         9.5,         4.7
"Load.S83"              ,   1,         4.7,         2.4
"Load.S84"              ,   1,         4.7,         2.4
"Load.S85"              ,   1,         9.5,         4.7
"Load.S86"              ,   1,         4.7,         2.4
"Load.S87"              ,   1,         9.5,         4.7
"Load.S88"              ,   1,         9.5,         4.7
"Load.S90"              ,   1,         9.5,         4.7
"Load.S92"              ,   1,         9.5,         4.7
"Load.S94"              ,   1,         9.5,         4.7
"Load.S95"              ,   1,         4.7,         2.4
"Load.S96"              ,   1,         4.7,         2.4
"Load.S98"              ,   1,         9.5,         4.7
"Load.S99"              ,   1,         9.5,         4.7
"Load.S100"             ,   1,         9.5,         4.7
"Load.S102"             ,   1,         4.7,         2.4
"Load.S103"             ,   1,         9.5,         4.7
"Load.S104"             ,   1,         9.5,         4.7
"Load.S106"             ,   1,         9.5,         4.7
"Load.S107"             ,   1,         9.5,         4.7
"Load.S109"             ,   1,         9.5,         4.7
"Load.S111"             ,   1,         4.7,         2.4
"Load.S112"             ,   1,         4.7,         2.4
"Load.S113"             ,   1,         9.5,         4.7
"Load.S114"             ,   1,         4.7,         2.4
"Generator.C83"         ,   1,         0.0,      -200.0
"Generator.C88"         ,   1,         0.0,       -16.7
"Generator.C90"         ,   1,         0.0,       -16.7
"Generator.C92"         ,   1,         0.0,       -16.7
"PVSystem.9"            ,   1,       -13.3,        -0.0
"PVSystem.28"           ,   1,       -13.3,        -0.0
"PVSystem.48"           ,   1,       -70.0,        -0.0
"PVSystem.58"           ,   1,        -6.7,        -0.0
"PVSystem.65"           ,   1,       -46.7,        -0.0
"PVSystem.76"           ,   1,       -81.7,        -0.0
"PVSystem.87"           ,   1,       -13.3,        -0.0
"PVSystem.100"          ,   1,       -13.3,        -0.0
"Storage.BATTERY9"      ,   1,         0.0,         0.0
"Storage.BATTERY28"     ,   1,         0.0,         0.0
"Storage.BATTERY48"     ,   1,         0.0,         0.0
"Storage.BATTERY58"     ,   1,         0.0,         0.0
"Storage.BATTERY65"     ,   1,         0.0,         0.0
"Storage.BATTERY76"     ,   1,         0.0,         0.0
"Storage.BATTERY87"     ,   1,         0.0,         0.0
"Storage.BATTERY100"    ,   1,         0.0,         0.0
